Circuit: * C:\Users\hanna\OneDrive - The University of Western Australia\Team14\10. Design\08. Simulation Files\03. AC measurement\Full bridge rectifier.asc

d13: both pins shorted together -- ignoring.
d20: both pins shorted together -- ignoring.
WARNING: Node NC_01 is floating.
WARNING: Node NC_02 is floating.

WARNING: Less than two connections to node nc_01.  This node is used by r10.
WARNING: Less than two connections to node nc_02.  This node is used by r14.
Direct Newton iteration for .op point succeeded.

Date: Thu Oct 19 15:39:54 2023
Total elapsed time: 0.152 seconds.

tnom = 27
temp = 27
method = modified trap
totiter = 4284
traniter = 4272
tranpoints = 1528
accept = 1320
rejected = 208
matrix size = 25
fillins = 2
solver = Normal
Avg thread counts: 2.4/4.9/4.8/2.4
Matrix Compiler1: 1.02 KB object code size  0.3/0.2/[0.2]
Matrix Compiler2: off  [0.2]/0.3/0.3

