Circuit: * C:\Users\hanna\OneDrive - The University of Western Australia\Team14\10. Design\08. Simulation Files\01. Component Low Voltage Generation\LT1085_9V_Power_Supply_Schematic.asc

Limiting rise time of source v1 to 4.16334e-18
Limiting fall time of source v1 to 4.16334e-18
Direct Newton iteration for .op point succeeded.
Heightened Def Con from 5e-07 +++++++++++++++++++++++++++++++++to 5.01125e-07

Date: Sat Sep 16 21:23:31 2023
Total elapsed time: 0.452 seconds.

tnom = 27
temp = 27
method = modified trap
totiter = 31170
traniter = 31159
tranpoints = 7673
accept = 5217
rejected = 2490
matrix size = 8
fillins = 4
solver = Normal
Avg thread counts: 1.2/1.8/1.7/1.2
Matrix Compiler1: 1.04 KB object code size  0.8/0.6/[0.6]
Matrix Compiler2: off  [0.3]/0.5/0.4

