Circuit: * C:\Users\hanna\OneDrive - The University of Western Australia\Team14\10. Design\08. Simulation Files\01. Component Low Voltage Generation\LT1085_3_3_V_Power_Supply_Schematic.asc

Limiting rise time of source v1 to 4.16334e-18
Limiting fall time of source v1 to 4.16334e-18
Direct Newton iteration for .op point succeeded.
Heightened Def Con from 5e-07 +++++++++++++++++++++++++++++++++to 5.01125e-07

Date: Sat Sep 16 21:29:03 2023
Total elapsed time: 0.412 seconds.

tnom = 27
temp = 27
method = modified trap
totiter = 14023
traniter = 14012
tranpoints = 3196
accept = 2260
rejected = 970
matrix size = 8
fillins = 4
solver = Normal
Avg thread counts: 1.4/3.1/2.6/1.4
Matrix Compiler1:      56 opcodes  0.9/[0.3]/0.5
Matrix Compiler2: off  [0.3]/0.4/0.6

