Circuit: * C:\Users\daydr\OneDrive - The University of Western Australia\Team14\10. Design\06. Design Outputs\Simulation Files\05. DC measurement + protection\DC sensing + protection.asc

Direct Newton iteration for .op point succeeded.

Date: Thu Oct 26 09:37:30 2023
Total elapsed time: 0.101 seconds.

tnom = 27
temp = 27
method = modified trap
totiter = 2122
traniter = 2096
tranpoints = 1049
accept = 1049
rejected = 0
matrix size = 14
fillins = 7
solver = Normal
Matrix Compiler1: 1.01 KB object code size  0.2/0.1/[0.1]
Matrix Compiler2: off  [0.1]/0.2/0.1

