Circuit: * C:\Users\daydr\OneDrive\Documents\LTspiceXVII\ELEC5552\DC sensing v4.asc

Direct Newton iteration for .op point succeeded.

Date: Wed Oct 25 14:43:58 2023
Total elapsed time: 0.094 seconds.

tnom = 27
temp = 27
method = modified trap
totiter = 2122
traniter = 2096
tranpoints = 1049
accept = 1049
rejected = 0
matrix size = 14
fillins = 7
solver = Normal
Matrix Compiler1: 1.01 KB object code size  0.3/0.2/[0.1]
Matrix Compiler2: off  [0.2]/0.2/0.2

