Circuit: * C:\Users\hanna\OneDrive - The University of Western Australia\Team14\10. Design\08. Simulation Files\06. Dual Supply\5V.asc

Direct Newton iteration failed to find .op point.  (Use ".option noopiter" to skip.)
Starting Gmin stepping
Gmin = 10
Gmin = 1.07374
Gmin = 0.115292
Gmin = 0.0123794
Gmin = 0.00132923
Gmin = 0.000142725
Gmin = 1.5325e-05
Gmin = 1.6455e-06
Gmin = 1.76685e-07
Gmin = 1.89714e-08
Gmin = 2.03704e-09
Gmin = 2.18725e-10
Gmin = 2.34854e-11
Gmin = 2.52173e-12
Gmin = 2.70769e-13
Gmin = 0
Gmin stepping succeeded in finding the operating point.

Changing Tseed to 1e-08
Heightened Def Con from 1.01611e-08 +to 1.11611e-08
Singular matrix:  Check node n009
   Iteration No. 9
Fatal Error: Singular matrix:  check node n009
   Iteration No. 9

